@<TRIPOS>MOLECULE
POH
   90    98     1     0     0
SMALL
resp


@<TRIPOS>ATOM
      1 C1          -3.5890     6.0940     1.1450 CA         1 POH      -0.035380
      2 C2           1.4740     4.0410     0.0570 C*         1 POH      -0.210031
      3 C3          -2.8020     4.0930     0.0490 CA         1 POH       0.246385
      4 C4          -3.6410     4.4150    -1.0290 CA         1 POH      -0.180697
      5 C5          -4.4170     5.5560    -0.9870 CA         1 POH      -0.035380
      6 C6          -5.2020     7.6100     0.0880 CT         1 POH      -0.361615
      7 C7           0.1320     4.3070     0.0610 C*         1 POH      -0.210031
      8 C8          -0.5690     3.0560     0.0470 CC         1 POH       0.177576
      9 C9           1.6490     2.6180     0.0230 CC         1 POH       0.177576
     10 C10         -2.7900     4.9670     1.1470 CA         1 POH      -0.180697
     11 N1          -4.3870     6.3750     0.0900 N*         1 POH       0.240766
     12 N2           0.3880     2.0670     0.0250 NA         1 POH      -0.137598
     13 N3          -2.0100     0.3950    -0.0750 NB         1 POH      -0.442690
     14 N4          -0.3880    -2.0740    -0.0270 NA         1 POH      -0.137598
     15 N5           2.0100    -0.4010     0.0650 NB         1 POH      -0.442690
     16 C11         -1.9600     2.8610     0.0240 CD         1 POH      -0.187814
     17 C12         -2.6230     1.6150    -0.0180 CC         1 POH       0.297553
     18 C13         -5.5730    -4.3290     1.0660 CA         1 POH      -0.035380
     19 C14         -4.0730     1.4710     0.0560 C*         1 POH      -0.250098
     20 C15         -4.1060    -2.7560    -0.0260 CA         1 POH       0.246385
     21 C16         -4.9950    -2.7570    -1.1110 CA         1 POH      -0.180697
     22 C17         -6.1320    -3.5420    -1.0760 CA         1 POH      -0.035380
     23 C18         -7.6510    -5.1130     0.0400 CT         1 POH      -0.361615
     24 C19         -4.3240     0.1410     0.0370 C*         1 POH      -0.250098
     25 C20         -3.0250    -0.5200    -0.0480 CC         1 POH       0.297553
     26 C21         -4.4220    -3.5660     1.0750 CA         1 POH      -0.180697
     27 N6          -6.4070    -4.3130     0.0010 N*         1 POH       0.240766
     28 C22         -2.8670    -1.9220    -0.0400 CD         1 POH      -0.187814
     29 C23         -1.6500    -2.6240    -0.0270 CC         1 POH       0.177576
     30 C24          3.5680    -6.1420    -1.0400 CA         1 POH      -0.035380
     31 C25         -1.4760    -4.0490    -0.0340 C*         1 POH      -0.210031
     32 C26          2.8030    -4.0990    -0.0080 CA         1 POH       0.246385
     33 C27          3.6570    -4.3840     1.0690 CA         1 POH      -0.180697
     34 C28          4.4270    -5.5300     1.0590 CA         1 POH      -0.035380
     35 C29          5.2450    -7.5880     0.0140 CT         1 POH      -0.361615
     36 C30         -0.1340    -4.3150    -0.0220 C*         1 POH      -0.210031
     37 C31          0.5680    -3.0640    -0.0270 CC         1 POH       0.177576
     38 C32          2.7750    -5.0120    -1.0740 CA         1 POH      -0.180697
     39 N7           4.3760    -6.3910     0.0170 N*         1 POH       0.240766
     40 C33          1.9590    -2.8690    -0.0090 CD         1 POH      -0.187814
     41 C34          2.6210    -1.6220     0.0090 CC         1 POH       0.297553
     42 C35          5.5430     4.3390    -1.1300 CA         1 POH      -0.035380
     43 C36          4.0700    -1.4790    -0.0940 C*         1 POH      -0.250098
     44 C37          4.1040     2.7510    -0.0210 CA         1 POH       0.246385
     45 C38          5.0270     2.7290     1.0360 CA         1 POH      -0.180697
     46 C39          6.1660     3.5090     0.9780 CA         1 POH      -0.035380
     47 C40          7.6190     5.1530    -0.1150 CT         1 POH      -0.361615
     48 C41          4.3210    -0.1480    -0.0920 C*         1 POH      -0.250098
     49 C42          3.0250     0.5140     0.0150 CC         1 POH       0.297553
     50 C43          4.3870     3.5820    -1.1150 CA         1 POH      -0.180697
     51 C44          2.8660     1.9160     0.0130 CD         1 POH      -0.187814
     52 N8           6.4130     4.2960    -0.0950 N*         1 POH       0.240766
     53 H1          -3.6210     6.7890     1.9750 H4         1 POH       0.203830
     54 H2           2.2740     4.7660     0.0810 HA         1 POH       0.191829
     55 H3          -3.6870     3.7850    -1.9090 HA         1 POH       0.187052
     56 H4          -5.0720     5.8500    -1.7970 H4         1 POH       0.203830
     57 H5          -4.6390     8.4070    -0.4030 H1         1 POH       0.176463
     58 H6          -6.1290     7.4180    -0.4520 H1         1 POH       0.176463
     59 H7          -5.4210     7.8870     1.1190 H1         1 POH       0.176463
     60 H8          -0.3320     5.2820     0.0690 HA         1 POH       0.191829
     61 H9          -2.1740     4.7660     2.0160 HA         1 POH       0.187052
     62 H10          0.1820     1.0720     0.0050 H          1 POH       0.167757
     63 H11         -0.1830    -1.0800    -0.0210 H          1 POH       0.167757
     64 H12         -5.8640    -4.9620     1.8950 H4         1 POH       0.203830
     65 H13         -4.7940     2.2720     0.1390 HA         1 POH       0.182715
     66 H14         -4.8000    -2.1600    -1.9940 HA         1 POH       0.187052
     67 H15         -6.8410    -3.5820    -1.8930 H4         1 POH       0.203830
     68 H16         -8.4280    -4.5360     0.5460 H1         1 POH       0.176463
     69 H17         -7.9560    -5.3370    -0.9810 H1         1 POH       0.176463
     70 H18         -7.4560    -6.0370     0.5840 H1         1 POH       0.176463
     71 H19         -5.2870    -0.3440     0.1000 HA         1 POH       0.182715
     72 H20         -3.7800    -3.6010     1.9470 HA         1 POH       0.187052
     73 H21          3.5870    -6.8680    -1.8430 H4         1 POH       0.203830
     74 H22         -2.2760    -4.7740    -0.0500 HA         1 POH       0.191829
     75 H23          3.7140    -3.7240     1.9260 HA         1 POH       0.187052
     76 H24          5.0920    -5.7950     1.8710 H4         1 POH       0.203830
     77 H25          6.2050    -7.3290    -0.4390 H1         1 POH       0.176463
     78 H26          5.3930    -7.9170     1.0420 H1         1 POH       0.176463
     79 H27          4.7590    -8.3730    -0.5640 H1         1 POH       0.176463
     80 H28          0.3290    -5.2900    -0.0080 HA         1 POH       0.191829
     81 H29          2.1460    -4.8420    -1.9400 HA         1 POH       0.187052
     82 H30          5.8080     4.9860    -1.9560 H4         1 POH       0.203830
     83 H31          4.7880    -2.2810    -0.1850 HA         1 POH       0.182715
     84 H32          4.8600     2.1140     1.9120 HA         1 POH       0.187052
     85 H33          6.9010     3.5310     1.7720 H4         1 POH       0.203830
     86 H34          7.3830     6.1090     0.3560 H1         1 POH       0.176463
     87 H35          8.4140     4.6520     0.4350 H1         1 POH       0.176463
     88 H36          7.9210     5.3100    -1.1500 H1         1 POH       0.176463
     89 H37          5.2830     0.3360    -0.1790 HA         1 POH       0.182715
     90 H38          3.7200     3.6320    -1.9670 HA         1 POH       0.187052
@<TRIPOS>BOND
     1     1    10 1   
     2     1    11 2   
     3     1    53 1   
     4     2     7 1   
     5     2     9 2   
     6     2    54 1   
     7     3     4 1   
     8     3    10 2   
     9     3    16 1   
    10     4     5 2   
    11     4    55 1   
    12     5    11 1   
    13     5    56 1   
    14     6    11 1   
    15     6    57 1   
    16     6    58 1   
    17     6    59 1   
    18     7     8 2   
    19     7    60 1   
    20     8    12 1   
    21     8    16 1   
    22     9    12 1   
    23     9    51 1   
    24    10    61 1   
    25    12    62 1   
    26    13    17 1   
    27    13    25 2   
    28    14    29 1   
    29    14    37 1   
    30    14    63 1   
    31    15    41 1   
    32    15    49 2   
    33    16    17 2   
    34    17    19 1   
    35    18    26 2   
    36    18    27 1   
    37    18    64 1   
    38    19    24 2   
    39    19    65 1   
    40    20    21 1   
    41    20    26 1   
    42    20    28 2   
    43    21    22 2   
    44    21    66 1   
    45    22    27 1   
    46    22    67 1   
    47    23    27 1   
    48    23    68 1   
    49    23    69 1   
    50    23    70 1   
    51    24    25 1   
    52    24    71 1   
    53    25    28 1   
    54    26    72 1   
    55    28    29 1   
    56    29    31 2   
    57    30    38 1   
    58    30    39 2   
    59    30    73 1   
    60    31    36 1   
    61    31    74 1   
    62    32    33 1   
    63    32    38 2   
    64    32    40 1   
    65    33    34 2   
    66    33    75 1   
    67    34    39 1   
    68    34    76 1   
    69    35    39 1   
    70    35    77 1   
    71    35    78 1   
    72    35    79 1   
    73    36    37 2   
    74    36    80 1   
    75    37    40 1   
    76    38    81 1   
    77    40    41 2   
    78    41    43 1   
    79    42    50 2   
    80    42    52 1   
    81    42    82 1   
    82    43    48 2   
    83    43    83 1   
    84    44    45 1   
    85    44    50 1   
    86    44    51 2   
    87    45    46 2   
    88    45    84 1   
    89    46    52 1   
    90    46    85 1   
    91    47    52 1   
    92    47    86 1   
    93    47    87 1   
    94    47    88 1   
    95    48    49 1   
    96    48    89 1   
    97    49    51 1   
    98    50    90 1   
@<TRIPOS>SUBSTRUCTURE
     1 POH         1 TEMP              0 ****  ****    0 ROOT
