@<TRIPOS>MOLECULE
EWV
   43    47     1     0     0
SMALL
resp


@<TRIPOS>ATOM
      1 C1          -0.6700    -1.0120     0.1620 CA         1 EWV      -0.244304
      2 C2           1.5560     0.1480    -0.0540 CA         1 EWV      -0.206511
      3 C3           2.2270     1.3620     0.1530 CA         1 EWV       0.078831
      4 C4          -2.8650    -2.1540     0.3810 CA         1 EWV      -0.202312
      5 C5          -4.8540    -0.8610     0.0970 CB         1 EWV       0.302927
      6 C6           1.4140     2.6260     0.2730 CT         1 EWV      -0.035951
      7 C7           0.2030     2.5360    -0.6410 CT         1 EWV      -0.127874
      8 C8           4.3610     0.2020     0.1280 CA         1 EWV       0.284328
      9 O1           5.7180     0.1200     0.2010 OS         1 EWV      -0.349720
     10 C9           6.4530     1.3290     0.4300 CT         1 EWV      -0.007323
     11 C10          3.6230     1.3780     0.2450 CA         1 EWV      -0.325332
     12 N1          -0.5910     1.3140    -0.3310 N*         1 EWV       0.093415
     13 C11         -1.9210     1.3890    -0.3520 CA         1 EWV       0.024255
     14 C12         -2.7220     0.2650    -0.1270 CA         1 EWV      -0.126766
     15 C13         -4.1260     0.2830    -0.1370 CB         1 EWV       0.259894
     16 O2          -4.9520     1.3430    -0.3790 OS         1 EWV      -0.362741
     17 C14         -6.2970     0.8420    -0.1780 CT         1 EWV       0.317457
     18 O3          -6.1980    -0.5830     0.0140 OS         1 EWV      -0.389195
     19 C15         -4.2520    -2.0960     0.3590 CA         1 EWV      -0.263185
     20 C16         -2.0830    -1.0000     0.1410 CA         1 EWV       0.123472
     21 C17          0.0860     0.1170    -0.0790 CA         1 EWV       0.242587
     22 C18          2.3020    -1.0440    -0.1910 CA         1 EWV      -0.203768
     23 C19          3.6860    -1.0260    -0.1020 CA         1 EWV       0.206953
     24 O4           4.4940    -2.1220    -0.2310 OS         1 EWV      -0.357094
     25 C20          3.8700    -3.3840    -0.4820 CT         1 EWV       0.003498
     26 H1          -0.1670    -1.9430     0.3950 HA         1 EWV       0.193268
     27 H2          -2.3640    -3.0940     0.5850 HA         1 EWV       0.189310
     28 H3           1.0880     2.7880     1.3090 HC         1 EWV       0.080898
     29 H4           2.0040     3.4990    -0.0210 HC         1 EWV       0.080898
     30 H5          -0.4600     3.3930    -0.5270 H1         1 EWV       0.132968
     31 H6           0.5130     2.4600    -1.6880 H1         1 EWV       0.132968
     32 H7           6.1730     1.7840     1.3860 H1         1 EWV       0.089049
     33 H8           7.5020     1.0320     0.4580 H1         1 EWV       0.089049
     34 H9           6.2950     2.0460    -0.3830 H1         1 EWV       0.089049
     35 H10          4.1270     2.3240     0.4060 HA         1 EWV       0.178323
     36 H11         -2.3510     2.3620    -0.5570 H4         1 EWV       0.185904
     37 H12         -6.7200     1.3050     0.7170 H2         1 EWV       0.091625
     38 H13         -6.8920     1.0510    -1.0690 H2         1 EWV       0.091625
     39 H14         -4.8590    -2.9770     0.5390 HA         1 EWV       0.220909
     40 H15          1.7960    -1.9790    -0.3880 HA         1 EWV       0.168073
     41 H16          4.6850    -4.1070    -0.5470 H1         1 EWV       0.083514
     42 H17          3.1960    -3.6630     0.3360 H1         1 EWV       0.083514
     43 H18          3.3160    -3.3700    -1.4280 H1         1 EWV       0.083514
@<TRIPOS>BOND
     1     1    20 1   
     2     1    21 2   
     3     1    26 1   
     4     2     3 1   
     5     2    21 1   
     6     2    22 2   
     7     3     6 1   
     8     3    11 2   
     9     4    19 1   
    10     4    20 2   
    11     4    27 1   
    12     5    15 1   
    13     5    18 1   
    14     5    19 2   
    15     6     7 1   
    16     6    28 1   
    17     6    29 1   
    18     7    12 1   
    19     7    30 1   
    20     7    31 1   
    21     8     9 1   
    22     8    11 1   
    23     8    23 2   
    24     9    10 1   
    25    10    32 1   
    26    10    33 1   
    27    10    34 1   
    28    11    35 1   
    29    12    13 2   
    30    12    21 1   
    31    13    14 1   
    32    13    36 1   
    33    14    15 2   
    34    14    20 1   
    35    15    16 1   
    36    16    17 1   
    37    17    18 1   
    38    17    37 1   
    39    17    38 1   
    40    19    39 1   
    41    22    23 1   
    42    22    40 1   
    43    23    24 1   
    44    24    25 1   
    45    25    41 1   
    46    25    42 1   
    47    25    43 1   
@<TRIPOS>SUBSTRUCTURE
     1 EWV         1 TEMP              0 ****  ****    0 ROOT
