EWV
  CCTOOLS-0919241033

 43 47  0  0  0  0  0  0  0  0999 V2000
   -0.5950   -1.0280    0.1430 C   0  0  0  0  0
    1.5810    0.1380    0.0150 C   0  0  0  0  0
    2.2710    1.3360    0.1890 C   0  0  0  0  0
   -2.7670   -2.1620    0.3190 C   0  0  0  0  0
   -4.7750   -0.8480    0.1940 C   0  0  0  0  0
    1.4850    2.6100    0.3610 C   0  0  0  0  0
    0.2150    2.5490   -0.4820 C   0  0  0  0  0
    4.3490    0.1560    0.0620 C   0  0  0  0  0
    5.7090    0.1640    0.0800 O   0  0  0  0  0
    6.3480    1.4300    0.2540 C   0  0  0  0  0
    3.6490    1.3450    0.2080 C   0  0  0  0  0
   -0.5400    1.3190   -0.2200 N   0  3  0  0  0
   -1.8550    1.3950   -0.2110 C   0  0  0  0  0
   -2.6420    0.2540   -0.0140 C   0  0  0  0  0
   -4.0480    0.3140    0.0150 C   0  0  0  0  0
   -4.9120    1.3620   -0.1070 O   0  0  0  0  0
   -6.1900    0.7720   -0.4070 C   0  0  0  0  0
   -6.1060   -0.5360    0.1880 O   0  0  0  0  0
   -4.1260   -2.0770    0.3400 C   0  0  0  0  0
   -1.9980   -1.0020    0.1520 C   0  0  0  0  0
    0.0970    0.1590   -0.0150 C   0  0  0  0  0
    2.2800   -1.0570   -0.1280 C   0  0  0  0  0
    3.6640   -1.0450   -0.1050 C   0  0  0  0  0
    4.3550   -2.2080   -0.2440 O   0  0  0  0  0
    3.5890   -3.4030   -0.4100 C   0  0  0  0  0
   -0.0630   -1.9610    0.2620 H   0  0  0  0  0
   -2.2830   -3.1210    0.4320 H   0  0  0  0  0
    1.2170    2.7320    1.4110 H   0  0  0  0  0
    2.0920    3.4570    0.0410 H   0  0  0  0  0
   -0.4110    3.4090   -0.2470 H   0  0  0  0  0
    0.4860    2.5820   -1.5370 H   0  0  0  0  0
    6.0390    1.8650    1.2040 H   0  0  0  0  0
    7.4290    1.2950    0.2500 H   0  0  0  0  0
    6.0620    2.0960   -0.5600 H   0  0  0  0  0
    4.1820    2.2760    0.3360 H   0  0  0  0  0
   -2.3330    2.3520   -0.3570 H   0  0  0  0  0
   -6.9960    1.3490    0.0470 H   0  0  0  0  0
   -6.3350    0.6970   -1.4850 H   0  0  0  0  0
   -4.7120   -2.9740    0.4710 H   0  0  0  0  0
    1.7470   -1.9870   -0.2580 H   0  0  0  0  0
    4.2610   -4.2550   -0.5100 H   0  0  0  0  0
    2.9460   -3.5460    0.4580 H   0  0  0  0  0
    2.9750   -3.3180   -1.3070 H   0  0  0  0  0
  1 20  2  0  0  0
  1 21  1  0  0  0
  1 26  1  0  0  0
  2 21  1  0  0  0
  2  3  2  0  0  0
  3  6  1  0  0  0
  4 19  2  0  0  0
  4 20  1  0  0  0
  4 27  1  0  0  0
  5 18  1  0  0  0
  5 15  2  0  0  0
  6  7  1  0  0  0
  6 28  1  0  0  0
  6 29  1  0  0  0
  7 30  1  0  0  0
  7 31  1  0  0  0
  8 11  2  0  0  0
  9  8  1  0  0  0
  9 10  1  0  0  0
 10 32  1  0  0  0
 10 33  1  0  0  0
 10 34  1  0  0  0
 11  3  1  0  0  0
 11 35  1  0  0  0
 12 13  1  0  0  0
 12  7  1  0  0  0
 13 36  1  0  0  0
 14 15  1  0  0  0
 14 13  2  0  0  0
 15 16  1  0  0  0
 17 16  1  0  0  0
 17 37  1  0  0  0
 17 38  1  0  0  0
 18 17  1  0  0  0
 19  5  1  0  0  0
 19 39  1  0  0  0
 20 14  1  0  0  0
 21 12  2  0  0  0
 22  2  1  0  0  0
 22 40  1  0  0  0
 23 22  2  0  0  0
 23  8  1  0  0  0
 24 23  1  0  0  0
 25 24  1  0  0  0
 25 41  1  0  0  0
 25 42  1  0  0  0
 25 43  1  0  0  0
M  CHG  1  12   1
M  END
$$$$
