@<TRIPOS>MOLECULE
EWV
   43    47     1     0     0
SMALL
resp


@<TRIPOS>ATOM
      1 C1          -0.6640    -1.0080     0.1820 CA         1 EWV      -0.341990
      2 C2           1.5490     0.1400    -0.0500 CA         1 EWV      -0.241539
      3 C3           2.2000     1.3400     0.1610 CA         1 EWV       0.088748
      4 C4          -2.8650    -2.1310     0.4160 CA         1 EWV      -0.282996
      5 C5          -4.8300    -0.8400     0.0850 CB         1 EWV       0.313608
      6 C6           1.3850     2.6020     0.2650 CT         1 EWV       0.012135
      7 C7           0.2000     2.5060    -0.6710 CT         1 EWV      -0.136349
      8 C8           4.3280     0.2080     0.1370 CA         1 EWV       0.355167
      9 O1           5.6700     0.1390     0.2160 OS         1 EWV      -0.430581
     10 C9           6.4110     1.3180     0.4610 CT         1 EWV       0.026878
     11 C10          3.5920     1.3640     0.2590 CA         1 EWV      -0.399152
     12 N1          -0.5960     1.2890    -0.3590 N*         1 EWV       0.004278
     13 C11         -1.8990     1.3640    -0.3900 CA         1 EWV       0.185973
     14 C12         -2.7070     0.2470    -0.1440 CA         1 EWV      -0.239049
     15 C13         -4.1060     0.2740    -0.1690 CB         1 EWV       0.330181
     16 O2          -4.9210     1.3140    -0.4430 OS         1 EWV      -0.438698
     17 C14         -6.2400     0.8570    -0.1570 CT         1 EWV       0.358615
     18 O3          -6.1590    -0.5510    -0.0270 OS         1 EWV      -0.467146
     19 C15         -4.2380    -2.0660     0.3810 CA         1 EWV      -0.256288
     20 C16         -2.0840    -0.9890     0.1530 CA         1 EWV       0.209117
     21 C17          0.0700     0.0990    -0.0810 CA         1 EWV       0.313901
     22 C18          2.2990    -1.0390    -0.1970 CA         1 EWV      -0.233564
     23 C19          3.6660    -1.0140    -0.1050 CA         1 EWV       0.241990
     24 O4           4.4690    -2.0950    -0.2390 OS         1 EWV      -0.432991
     25 C20          3.8900    -3.3530    -0.5170 CT         1 EWV       0.032394
     26 H1          -0.1720    -1.9250     0.4350 HA         1 EWV       0.232137
     27 H2          -2.3750    -3.0590     0.6430 HA         1 EWV       0.221826
     28 H3           1.0420     2.7580     1.2840 HC         1 EWV       0.072121
     29 H4           1.9760     3.4630    -0.0180 HC         1 EWV       0.072121
     30 H5          -0.4590     3.3520    -0.5740 H1         1 EWV       0.142869
     31 H6           0.5250     2.4220    -1.6990 H1         1 EWV       0.142869
     32 H7           6.1360     1.7580     1.4110 H1         1 EWV       0.085726
     33 H8           7.4460     1.0150     0.4900 H1         1 EWV       0.085726
     34 H9           6.2680     2.0380    -0.3350 H1         1 EWV       0.085726
     35 H10          4.0810     2.3040     0.4250 HA         1 EWV       0.213503
     36 H11         -2.3300     2.3180    -0.6150 H4         1 EWV       0.192719
     37 H12         -6.5710     1.2920     0.7740 H2         1 EWV       0.093187
     38 H13         -6.8910     1.1120    -0.9740 H2         1 EWV       0.093187
     39 H14         -4.8430    -2.9310     0.5750 HA         1 EWV       0.248227
     40 H15          1.8020    -1.9650    -0.3980 HA         1 EWV       0.199927
     41 H16          4.7110    -4.0500    -0.5850 H1         1 EWV       0.081828
     42 H17          3.2230    -3.6590     0.2810 H1         1 EWV       0.081828
     43 H18          3.3520    -3.3350    -1.4570 H1         1 EWV       0.081828
@<TRIPOS>BOND
     1     1    20 1   
     2     1    21 2   
     3     1    26 1   
     4     2     3 1   
     5     2    21 1   
     6     2    22 2   
     7     3     6 1   
     8     3    11 2   
     9     4    19 1   
    10     4    20 2   
    11     4    27 1   
    12     5    15 1   
    13     5    18 1   
    14     5    19 2   
    15     6     7 1   
    16     6    28 1   
    17     6    29 1   
    18     7    12 1   
    19     7    30 1   
    20     7    31 1   
    21     8     9 1   
    22     8    11 1   
    23     8    23 2   
    24     9    10 1   
    25    10    32 1   
    26    10    33 1   
    27    10    34 1   
    28    11    35 1   
    29    12    13 2   
    30    12    21 1   
    31    13    14 1   
    32    13    36 1   
    33    14    15 2   
    34    14    20 1   
    35    15    16 1   
    36    16    17 1   
    37    17    18 1   
    38    17    37 1   
    39    17    38 1   
    40    19    39 1   
    41    22    23 1   
    42    22    40 1   
    43    23    24 1   
    44    24    25 1   
    45    25    41 1   
    46    25    42 1   
    47    25    43 1   
@<TRIPOS>SUBSTRUCTURE
     1 EWV         1 TEMP              0 ****  ****    0 ROOT
