@<TRIPOS>MOLECULE
POH
   90    98     1     0     0
SMALL
resp


@<TRIPOS>ATOM
      1 C1          -3.9860     5.7290     1.3860 CA         1 POH       0.108122
      2 C2           1.4720     3.9740     0.0840 C*         1 POH      -0.081246
      3 C3          -2.8030     4.0610     0.1630 CA         1 POH       0.464674
      4 C4          -3.1470     4.7290    -1.0070 CA         1 POH      -0.412641
      5 C5          -3.9040     5.8700    -0.9300 CA         1 POH       0.108122
      6 C6          -5.0950     7.6020     0.2920 CT         1 POH      -0.354508
      7 C7           0.1070     4.2400     0.1350 C*         1 POH      -0.081246
      8 C8          -0.5570     3.0220     0.0920 CC         1 POH      -0.382721
      9 C9           1.6270     2.5960     0.0120 CC         1 POH      -0.382721
     10 C10         -3.2310     4.5830     1.3770 CA         1 POH      -0.412641
     11 N1          -4.3130     6.3480     0.2490 N*         1 POH       0.122811
     12 N2           0.3850     2.0440     0.0220 NA         1 POH       0.476680
     13 N3          -2.0220     0.3650     0.0390 NB         1 POH       0.008735
     14 N4          -0.3780    -2.0570    -0.0180 NA         1 POH       0.476680
     15 N5           2.0190    -0.4270    -0.0030 NB         1 POH       0.008735
     16 C11         -1.9810     2.8060     0.1120 CD         1 POH       0.250478
     17 C12         -2.6270     1.6180     0.0870 CC         1 POH      -0.166030
     18 C13         -5.7660    -4.0300     1.1150 CA         1 POH       0.108122
     19 C14         -4.0790     1.4510     0.1050 C*         1 POH      -0.126365
     20 C15         -4.0780    -2.7720    -0.0120 CA         1 POH       0.464674
     21 C16         -4.7340    -3.0480    -1.2070 CA         1 POH      -0.412641
     22 C17         -5.8780    -3.8050    -1.1930 CA         1 POH       0.108122
     23 C18         -7.6260    -5.0670    -0.0540 CT         1 POH      -0.354508
     24 C19         -4.3090     0.1390     0.0710 C*         1 POH      -0.126365
     25 C20         -2.9910    -0.5050     0.0300 CC         1 POH      -0.166030
     26 C21         -4.6200    -3.2780     1.1650 CA         1 POH      -0.412641
     27 N6          -6.3720    -4.2840    -0.0490 N*         1 POH       0.122811
     28 C22         -2.8250    -1.9440     0.0020 CD         1 POH       0.250478
     29 C23         -1.6390    -2.5950    -0.0070 CC         1 POH      -0.382721
     30 C24          3.6600    -6.0690    -1.0350 CA         1 POH       0.108122
     31 C25         -1.4500    -4.0470    -0.0050 C*         1 POH      -0.081246
     32 C26          2.7850    -4.0990    -0.0030 CA         1 POH       0.464674
     33 C27          3.5320    -4.4230     1.1310 CA         1 POH      -0.412641
     34 C28          4.3030    -5.5530     1.1330 CA         1 POH       0.108122
     35 C29          5.2100    -7.5610     0.1220 CT         1 POH      -0.354508
     36 C30         -0.1460    -4.3050    -0.0030 C*         1 POH      -0.081246
     37 C31          0.5810    -3.0340    -0.0210 CC         1 POH      -0.382721
     38 C32          2.8690    -4.9480    -1.1000 CA         1 POH      -0.412641
     39 N7           4.3560    -6.3580     0.0640 N*         1 POH       0.122811
     40 C33          1.9280    -2.8710    -0.0260 CD         1 POH       0.250478
     41 C34          2.6050    -1.5890    -0.0530 CC         1 POH      -0.166030
     42 C35          5.6230     4.0610    -1.3920 CA         1 POH       0.108122
     43 C36          4.0630    -1.4630    -0.1760 C*         1 POH      -0.126365
     44 C37          4.0940     2.7320    -0.1390 CA         1 POH       0.464674
     45 C38          4.8400     3.0130     0.9980 CA         1 POH      -0.412641
     46 C39          5.9530     3.8080     0.8920 CA         1 POH       0.108122
     47 C40          7.5100     5.1990    -0.3670 CT         1 POH      -0.354508
     48 C41          4.3220    -0.1570    -0.1900 C*         1 POH      -0.126365
     49 C42          3.0340     0.5250    -0.0790 CC         1 POH      -0.166030
     50 C43          4.5010     3.2760    -1.3520 CA         1 POH      -0.412641
     51 C44          2.8690     1.8670    -0.0630 CD         1 POH       0.250478
     52 N8           6.3290     4.3130    -0.2850 N*         1 POH       0.122811
     53 H1          -4.3440     6.1700     2.2940 H4         1 POH       0.202509
     54 H2           2.2590     4.6970     0.1000 HA         1 POH       0.159940
     55 H3          -2.8390     4.3680    -1.9680 HA         1 POH       0.230481
     56 H4          -4.2020     6.4200    -1.8000 H4         1 POH       0.202509
     57 H5          -4.4150     8.4400     0.2930 H1         1 POH       0.177290
     58 H6          -5.7320     7.6380    -0.5760 H1         1 POH       0.177290
     59 H7          -5.6930     7.6050     1.1880 H1         1 POH       0.177290
     60 H8          -0.3500     5.2050     0.1960 HA         1 POH       0.159940
     61 H9          -2.9890     4.1070     2.3060 HA         1 POH       0.230481
     62 H10          0.1890     1.0680    -0.0160 H          1 POH      -0.147511
     63 H11         -0.1790    -1.0810    -0.0100 H          1 POH      -0.147511
     64 H12         -6.2210    -4.4430     1.9920 H4         1 POH       0.202509
     65 H13         -4.8020     2.2400     0.1400 HA         1 POH       0.155203
     66 H14         -4.3610    -2.6830    -2.1430 HA         1 POH       0.230481
     67 H15         -6.4150    -4.0470    -2.0870 H4         1 POH       0.202509
     68 H16         -8.4450    -4.4190     0.2200 H1         1 POH       0.177290
     69 H17         -7.7800    -5.4650    -1.0430 H1         1 POH       0.177290
     70 H18         -7.5320    -5.8720     0.6560 H1         1 POH       0.177290
     71 H19         -5.2560    -0.3590     0.0740 HA         1 POH       0.155203
     72 H20         -4.1580    -3.0940     2.1150 HA         1 POH       0.230481
     73 H21          3.7500    -6.7490    -1.8580 H4         1 POH       0.202509
     74 H22         -2.2470    -4.7610     0.0020 HA         1 POH       0.159940
     75 H23          3.5080    -3.8070     2.0070 HA         1 POH       0.230481
     76 H24          4.8870    -5.8490     1.9810 H4         1 POH       0.202509
     77 H25          6.2410    -7.2540     0.1990 H1         1 POH       0.177290
     78 H26          4.9290    -8.1440     0.9860 H1         1 POH       0.177290
     79 H27          5.0600    -8.1360    -0.7760 H1         1 POH       0.177290
     80 H28          0.3160    -5.2690     0.0110 HA         1 POH       0.159940
     81 H29          2.3270    -4.7460    -2.0030 HA         1 POH       0.230481
     82 H30          5.9830     4.5000    -2.3000 H4         1 POH       0.202509
     83 H31          4.7640    -2.2680    -0.2540 HA         1 POH       0.155203
     84 H32          4.5670     2.6190     1.9570 HA         1 POH       0.230481
     85 H33          6.5620     4.0530     1.7380 H4         1 POH       0.202509
     86 H34          7.1800     6.2260    -0.3260 H1         1 POH       0.177290
     87 H35          8.1620     4.9830     0.4610 H1         1 POH       0.177290
     88 H36          8.0200     5.0080    -1.2970 H1         1 POH       0.177290
     89 H37          5.2780     0.3170    -0.2770 HA         1 POH       0.155203
     90 H38          3.9580     3.0910    -2.2580 HA         1 POH       0.230481
@<TRIPOS>BOND
     1     1    10 1   
     2     1    11 2   
     3     1    53 1   
     4     2     7 1   
     5     2     9 2   
     6     2    54 1   
     7     3     4 1   
     8     3    10 2   
     9     3    16 1   
    10     4     5 2   
    11     4    55 1   
    12     5    11 1   
    13     5    56 1   
    14     6    11 1   
    15     6    57 1   
    16     6    58 1   
    17     6    59 1   
    18     7     8 2   
    19     7    60 1   
    20     8    12 1   
    21     8    16 1   
    22     9    12 1   
    23     9    51 1   
    24    10    61 1   
    25    12    62 1   
    26    13    17 1   
    27    13    25 2   
    28    14    29 1   
    29    14    37 1   
    30    14    63 1   
    31    15    41 1   
    32    15    49 2   
    33    16    17 2   
    34    17    19 1   
    35    18    26 2   
    36    18    27 1   
    37    18    64 1   
    38    19    24 2   
    39    19    65 1   
    40    20    21 1   
    41    20    26 1   
    42    20    28 2   
    43    21    22 2   
    44    21    66 1   
    45    22    27 1   
    46    22    67 1   
    47    23    27 1   
    48    23    68 1   
    49    23    69 1   
    50    23    70 1   
    51    24    25 1   
    52    24    71 1   
    53    25    28 1   
    54    26    72 1   
    55    28    29 1   
    56    29    31 2   
    57    30    38 1   
    58    30    39 2   
    59    30    73 1   
    60    31    36 1   
    61    31    74 1   
    62    32    33 1   
    63    32    38 2   
    64    32    40 1   
    65    33    34 2   
    66    33    75 1   
    67    34    39 1   
    68    34    76 1   
    69    35    39 1   
    70    35    77 1   
    71    35    78 1   
    72    35    79 1   
    73    36    37 2   
    74    36    80 1   
    75    37    40 1   
    76    38    81 1   
    77    40    41 2   
    78    41    43 1   
    79    42    50 2   
    80    42    52 1   
    81    42    82 1   
    82    43    48 2   
    83    43    83 1   
    84    44    45 1   
    85    44    50 1   
    86    44    51 2   
    87    45    46 2   
    88    45    84 1   
    89    46    52 1   
    90    46    85 1   
    91    47    52 1   
    92    47    86 1   
    93    47    87 1   
    94    47    88 1   
    95    48    49 1   
    96    48    89 1   
    97    49    51 1   
    98    50    90 1   
@<TRIPOS>SUBSTRUCTURE
     1 POH         1 TEMP              0 ****  ****    0 ROOT
