POH
  CCTOOLS-0919241033

 90 98  0  0  0  0  0  0  0  0999 V2000
   -3.5180    6.0910    1.1890 C   0  0  0  0  0
    1.4560    3.9610   -0.0400 C   0  0  0  0  0
   -2.7850    4.0920    0.0890 C   0  0  0  0  0
   -3.6370    4.4260   -0.9720 C   0  0  0  0  0
   -4.3860    5.5820   -0.8900 C   0  0  0  0  0
   -5.1210    7.5840    0.2090 C   0  0  0  0  0
    0.1080    4.2190   -0.0120 C   0  0  0  0  0
   -0.5640    2.9860    0.0110 C   0  0  0  0  0
    1.6260    2.5670   -0.0340 C   0  0  0  0  0
   -2.7340    4.9560    1.1920 C   0  0  0  0  0
   -4.3070    6.3670    0.1670 N   0  3  0  0  0
    0.3810    1.9890   -0.0040 N   0  0  0  0  0
   -2.0650    0.3940    0.0180 N   0  0  0  0  0
   -0.3810   -1.9900    0.0010 N   0  0  0  0  0
    2.0660   -0.3940   -0.0210 N   0  0  0  0  0
   -1.9610    2.8590    0.0470 C   0  0  0  0  0
   -2.6130    1.6080    0.0400 C   0  0  0  0  0
   -5.5640   -4.3840    0.9800 C   0  0  0  0  0
   -4.0300    1.4580    0.0530 C   0  0  0  0  0
   -4.1020   -2.7770   -0.0290 C   0  0  0  0  0
   -4.9730   -2.7510   -1.1260 C   0  0  0  0  0
   -6.0970   -3.5490   -1.1050 C   0  0  0  0  0
   -7.5630   -5.1590   -0.0960 C   0  0  0  0  0
   -4.2840    0.1300    0.0360 C   0  0  0  0  0
   -3.0230   -0.5320    0.0140 C   0  0  0  0  0
   -4.4170   -3.6200    1.0450 C   0  0  0  0  0
   -6.3570   -4.3280   -0.0720 N   0  3  0  0  0
   -2.8790   -1.9360   -0.0050 C   0  0  0  0  0
   -1.6270   -2.5680    0.0020 C   0  0  0  0  0
    3.5500   -6.1250   -0.9850 C   0  0  0  0  0
   -1.4560   -3.9620    0.0130 C   0  0  0  0  0
    2.7870   -4.0930    0.0290 C   0  0  0  0  0
    3.6090   -4.3920    1.1240 C   0  0  0  0  0
    4.3590   -5.5490    1.1000 C   0  0  0  0  0
    5.1250   -7.5850    0.0860 C   0  0  0  0  0
   -0.1080   -4.2190    0.0180 C   0  0  0  0  0
    0.5640   -2.9860    0.0100 C   0  0  0  0  0
    2.7670   -4.9910   -1.0460 C   0  0  0  0  0
    4.3100   -6.3670    0.0660 N   0  3  0  0  0
    1.9610   -2.8600    0.0090 C   0  0  0  0  0
    2.6140   -1.6090   -0.0120 C   0  0  0  0  0
    5.5280    4.3580   -1.1850 C   0  0  0  0  0
    4.0300   -1.4590   -0.0280 C   0  0  0  0  0
    4.1000    2.7780   -0.0890 C   0  0  0  0  0
    5.0050    2.7810    0.9810 C   0  0  0  0  0
    6.1270    3.5790    0.9040 C   0  0  0  0  0
    7.5600    5.1610   -0.1920 C   0  0  0  0  0
    4.2840   -0.1310   -0.0470 C   0  0  0  0  0
    3.0240    0.5320   -0.0420 C   0  0  0  0  0
    4.3810    3.5920   -1.1940 C   0  0  0  0  0
    2.8790    1.9350   -0.0530 C   0  0  0  0  0
    6.3540    4.3310   -0.1560 N   0  3  0  0  0
   -3.4900    6.7600    2.0360 H   0  0  0  0  0
    2.2440    4.6990   -0.0670 H   0  0  0  0  0
   -3.7060    3.7890   -1.8410 H   0  0  0  0  0
   -5.0450    5.8480   -1.7030 H   0  0  0  0  0
   -4.5610    8.4110   -0.2270 H   0  0  0  0  0
   -6.0380    7.4270   -0.3580 H   0  0  0  0  0
   -5.3700    7.8190    1.2440 H   0  0  0  0  0
   -0.3530    5.1950   -0.0080 H   0  0  0  0  0
   -2.0910    4.7360    2.0310 H   0  0  0  0  0
    0.1990    1.0360    0.0040 H   0  0  0  0  0
   -0.1990   -1.0370   -0.0050 H   0  0  0  0  0
   -5.8130   -5.0400    1.8010 H   0  0  0  0  0
   -4.7610    2.2520    0.0730 H   0  0  0  0  0
   -4.7670   -2.1150   -1.9740 H   0  0  0  0  0
   -6.7750   -3.5360   -1.9460 H   0  0  0  0  0
   -8.3950   -4.6040    0.3390 H   0  0  0  0  0
   -7.8020   -5.4230   -1.1260 H   0  0  0  0  0
   -7.3910   -6.0670    0.4820 H   0  0  0  0  0
   -5.2570   -0.3390    0.0390 H   0  0  0  0  0
   -3.7730   -3.6700    1.9110 H   0  0  0  0  0
    3.5380   -6.8250   -1.8060 H   0  0  0  0  0
   -2.2450   -4.7000    0.0160 H   0  0  0  0  0
    3.6550   -3.7260    1.9730 H   0  0  0  0  0
    4.9960   -5.7880    1.9390 H   0  0  0  0  0
    6.1010   -7.3750   -0.3510 H   0  0  0  0  0
    5.2520   -7.9200    1.1150 H   0  0  0  0  0
    4.6280   -8.3640   -0.4910 H   0  0  0  0  0
    0.3540   -5.1960    0.0270 H   0  0  0  0  0
    2.1470   -4.7990   -1.9100 H   0  0  0  0  0
    5.7560    4.9850   -2.0340 H   0  0  0  0  0
    4.7610   -2.2540   -0.0260 H   0  0  0  0  0
    4.8260    2.1680    1.8520 H   0  0  0  0  0
    6.8310    3.5880    1.7240 H   0  0  0  0  0
    7.3400    6.1400    0.2360 H   0  0  0  0  0
    8.3490    4.6810    0.3870 H   0  0  0  0  0
    7.8870    5.2820   -1.2240 H   0  0  0  0  0
    5.2570    0.3370   -0.0640 H   0  0  0  0  0
    3.7100    3.6200   -2.0400 H   0  0  0  0  0
  1 10  2  0  0  0
  1 11  1  0  0  0
  1 53  1  0  0  0
  2  7  2  0  0  0
  2  9  1  0  0  0
  2 54  1  0  0  0
  3  4  2  0  0  0
  3 10  1  0  0  0
  3 16  1  0  0  0
  4  5  1  0  0  0
  4 55  1  0  0  0
  5 11  2  0  0  0
  5 56  1  0  0  0
  6 11  1  0  0  0
  6 57  1  0  0  0
  6 58  1  0  0  0
  6 59  1  0  0  0
  7  8  1  0  0  0
  7 60  1  0  0  0
  8 12  1  0  0  0
  8 16  2  0  0  0
  9 12  1  0  0  0
  9 51  2  0  0  0
 10 61  1  0  0  0
 12 62  1  0  0  0
 13 17  2  0  0  0
 13 25  1  0  0  0
 14 29  1  0  0  0
 14 37  1  0  0  0
 14 63  1  0  0  0
 15 41  1  0  0  0
 15 49  2  0  0  0
 16 17  1  0  0  0
 17 19  1  0  0  0
 18 26  2  0  0  0
 18 27  1  0  0  0
 18 64  1  0  0  0
 19 24  2  0  0  0
 19 65  1  0  0  0
 20 21  2  0  0  0
 20 26  1  0  0  0
 20 28  1  0  0  0
 21 22  1  0  0  0
 21 66  1  0  0  0
 22 27  2  0  0  0
 22 67  1  0  0  0
 23 27  1  0  0  0
 23 68  1  0  0  0
 23 69  1  0  0  0
 23 70  1  0  0  0
 24 25  1  0  0  0
 24 71  1  0  0  0
 25 28  2  0  0  0
 26 72  1  0  0  0
 28 29  1  0  0  0
 29 31  2  0  0  0
 30 38  2  0  0  0
 30 39  1  0  0  0
 30 73  1  0  0  0
 31 36  1  0  0  0
 31 74  1  0  0  0
 32 33  2  0  0  0
 32 38  1  0  0  0
 32 40  1  0  0  0
 33 34  1  0  0  0
 33 75  1  0  0  0
 34 39  2  0  0  0
 34 76  1  0  0  0
 35 39  1  0  0  0
 35 77  1  0  0  0
 35 78  1  0  0  0
 35 79  1  0  0  0
 36 37  2  0  0  0
 36 80  1  0  0  0
 37 40  1  0  0  0
 38 81  1  0  0  0
 40 41  2  0  0  0
 41 43  1  0  0  0
 42 50  1  0  0  0
 42 52  2  0  0  0
 42 82  1  0  0  0
 43 48  2  0  0  0
 43 83  1  0  0  0
 44 45  1  0  0  0
 44 50  2  0  0  0
 44 51  1  0  0  0
 45 46  2  0  0  0
 45 84  1  0  0  0
 46 52  1  0  0  0
 46 85  1  0  0  0
 47 52  1  0  0  0
 47 86  1  0  0  0
 47 87  1  0  0  0
 47 88  1  0  0  0
 48 49  1  0  0  0
 48 89  1  0  0  0
 49 51  1  0  0  0
 50 90  1  0  0  0
M  CHG  1  11   1
M  CHG  1  27   1
M  CHG  1  39   1
M  CHG  1  52   1
M  END
$$$$
